
This summary information was generated by AeroDyn (v15.00.00b-bjj, 6-Oct-2015) on 07-Oct-2015 at 19:20:34.

======  General Options  ============================================================================
            1  WakeMod        - Type of wake/induction model: Blade-Element/Momentum Theory
            1  AFAeroMod      - Type of blade airfoil aerodynamics model: steady
            0  TwrPotent      - Type tower influence on wind based on potential flow around the tower: none
            F  TwrShadow      - Calculate tower influence on wind based on downstream tower shadow? No
            F  TwrAero        - Calculate tower aerodynamic loads? No
======  Blade-Element/Momentum Theory Options  ======================================================
            1  SkewMod        - Type of skewed-wake correction model: uncoupled
            F  TipLoss        - Use the Prandtl tip-loss model? No
            F  HubLoss        - Use the Prandtl hub-loss model? No
            T  TanInd         - Include tangential induction in BEMT calculations? Yes
            T  AIDrag         - Include the drag term in the axial-induction calculation? Yes
            T  AIDrag         - Include the drag term in the tangential-induction calculation? Yes
======  Outputs  ====================================================================================
            4  NBlOuts        - Number of blade nodes selected for output
           23  NumBlNds       - Number of blade nodes in the analysis
               Blade nodes selected for output:  Output node  Analysis node
                                                 -----------  -------------
                                                           1              1
                                                           2              3
                                                           3              4
                                                           4              6
            0  NTwOuts        - Number of tower nodes selected for output
               Requested Output Channels:
               Col   Parameter  Units
               ----  ---------  -----
                  0  Time       (s)       
                  1  B1N1VDisx  (m/s)     
                  2  B1N1VDisy  (m/s)     
                  3  B1N1VDisz  (m/s)     
                  4  B1N2VDisx  (m/s)     
                  5  B1N2VDisy  (m/s)     
                  6  B1N2VDisz  (m/s)     
                  7  B1N3VDisx  (m/s)     
                  8  B1N3VDisy  (m/s)     
                  9  B1N3VDisz  (m/s)     
                 10  B1N1STVx   (m/s)     
                 11  B1N1STVy   (m/s)     
                 12  B1N1STVz   (m/s)     
                 13  B1N2STVx   (m/s)     
                 14  B1N2STVy   (m/s)     
                 15  B1N2STVz   (m/s)     
                 16  B1N3STVx   (m/s)     
                 17  B1N3STVy   (m/s)     
                 18  B1N3STVz   (m/s)     
                 19  RtSpeed    (rpm)     
                 20  RtSkew     (deg)     
                 21  B1Azimuth  (deg)     
                 22  B1N1AxInd  (-)       
                 23  B1N2AxInd  (-)       
                 24  B1N3AxInd  (-)       
                 25  B1N1Alpha  (deg)     
                 26  B1N2Alpha  (deg)     
                 27  B1N3Alpha  (deg)     
                 28  B1N1Theta  (deg)     
                 29  B1N2Theta  (deg)     
                 30  B1N3Theta  (deg)     
