
This file of echoed input was generated by AeroDyn (v14.00.00a-gjh, 01-Oct-2014) on 11-Dec-2014 at 13:05:57.
--
Contents of "Airfoils/UAE_VI/cylinder.dat":
 NonDimAreA      = 1.0                 
 NumCoords       = 0                   
 NumTabs         = 1                   
 Re              = 0.75                
 Ctrl            = 0.0                 
 InclUAdata      = False               
 NumAlf          = 3                   
-180.00	   .000	  .3000  0.0
.00	   .000	  .3000  0.0
180.00	   .000	  .3000  0.0
--
Contents of "Airfoils/UAE_VI/Mod_S809_129.dat":
 NonDimAreA      = 1.0                 
 NumCoords       = 0                   
 NumTabs         = 1                   
 Re              = 0.75                
 Ctrl            = 0.0                 
 InclUAdata      = False               
 NumAlf          = 61                  
-180	0	0.1748	0
-170	0.23	0.2116	0.4
-160	0.46	0.3172	0.1018
-150	0.494	0.4784	0.1333
-140	0.51	0.6743	0.1727
-130	0.486	0.8799	0.2132
-120	0.415	1.0684	0.2498
-110	0.302	1.2148	0.2779
-100	0.159	1.2989	0.2933
-90	0	1.308	0.2936
-80	-0.159	1.2989	0.2933
-70	-0.302	1.2148	0.2779
-60	-0.415	1.0684	0.2498
-50	-0.486	0.8799	0.2132
-40	-0.51	0.6743	0.1727
-30	-0.494	0.4784	0.1333
-21.1	-0.56	0.3027	0.0612
-19.1	-0.67	0.3069	0.0904
-17.1	-0.79	0.1928	0.0293
-15.2	-0.84	0.0898	-0.009
-13.2	-0.7	0.0553	-0.0045
-11.1	-0.63	0.039	-0.0044
-9.2	-0.56	0.0233	-0.0051
-7.1	-0.64	0.0131	0.0018
-5.1	-0.429	0.0134	-0.0216
-3.1	-0.202	0.0119	-0.0282
-0.9	0.059	0.0122	-0.0346
1	0.294	0.0116	-0.0405
3.1	0.539	0.0144	-0.0455
5.2	0.789	0.0146	-0.0507
7.1	1	0.0162	-0.0404
9.2	1.215	0.0274	-0.0321
10.3	1.288	0.0303	-0.0281
11.1	1.339	0.0369	-0.0284
12.2	1.421	0.0509	-0.0322
13.2	1.485	0.0648	-0.0361
14.3	1.539	0.0776	-0.0363
15.3	1.604	0.0917	-0.0393
16.1	1.639	0.0994	-0.0398
17.1	1.676	0.2306	-0.0983
18.1	1.691	0.4	-0.1242
19.1	1.748	0.4	-0.1155
25.8	2.622	0.4784	-0.2459
30	2.606372093	0.614	-0.263188372
34.4	2.59	0.755	-0.2813
40	2.433	1.574367925	-0.289779245
45	2.236	2.378	-0.29735
50	2.056	2.403	-0.3134
60	1.635	2.455	-0.3388
70	0.971	2.472	-0.3557
80	0.385	2.476	-0.363
90	0	2.468	-0.3604
100	-0.159	1.2989	-0.36
110	-0.302	1.2148	-0.3446
120	-0.415	1.0684	-0.3166
130	-0.486	0.8799	-0.28
140	-0.51	0.6743	-0.2394
150	-0.494	0.4784	-0.2001
160	-0.46	0.3172	-0.1685
170	-0.23	0.2116	-0.5
180	0	0.1748	0
--
Contents of "Airfoils/UAE_VI/Mod_S809_185.dat":
 NonDimAreA      = 1.0                 
 NumCoords       = 0                   
 NumTabs         = 1                   
 Re              = 0.75                
 Ctrl            = 0.0                 
 InclUAdata      = False               
 NumAlf          = 61                  
-180	0	0.1748	0
-170	0.23	0.2116	0.4
-160	0.46	0.3172	0.1018
-150	0.494	0.4784	0.1333
-140	0.51	0.6743	0.1727
-130	0.486	0.8799	0.2132
-120	0.415	1.0684	0.2498
-110	0.302	1.2148	0.2779
-100	0.159	1.2989	0.2933
-90	0	1.308	0.2936
-80	-0.159	1.2989	0.2933
-70	-0.302	1.2148	0.2779
-60	-0.415	1.0684	0.2498
-50	-0.486	0.8799	0.2132
-40	-0.51	0.6743	0.1727
-30	-0.494	0.4784	0.1333
-21.1	-0.56	0.3027	0.0612
-19.1	-0.67	0.3069	0.0904
-17.1	-0.79	0.1928	0.0293
-15.2	-0.84	0.0898	-0.009
-13.2	-0.7	0.0553	-0.0045
-11.1	-0.63	0.039	-0.0044
-9.2	-0.56	0.0233	-0.0051
-7.1	-0.64	0.0131	0.0018
-5.1	-0.427	0.0134	-0.0216
-3.1	-0.204	0.0119	-0.0282
-0.9	0.057	0.0122	-0.0346
1	0.295	0.0116	-0.0405
3.1	0.54	0.0144	-0.0455
5.2	0.789	0.0146	-0.0507
7.1	0.996	0.0162	-0.0404
9.2	1.215	0.0274	-0.0321
10.3	1.283	0.0303	-0.0281
11.1	1.335	0.0369	-0.0284
12.2	1.386	0.0509	-0.0322
13.2	1.425	0.0648	-0.0361
14.3	1.459	0.0776	-0.0363
15.3	1.475	0.0917	-0.0393
16.1	1.489	0.0994	-0.0398
17.1	1.5	0.2306	-0.0983
18.1	1.479	0.4	-0.1242
19.1	1.515	0.4	-0.1155
24.5	2.223	0.4784	-0.2459
32.9	2.245	0.736	-0.2813
35	2.183909091	0.909586777	-0.284085537
40	2.082	1.469793388	-0.290717769
45	1.936	2.107	-0.29735
50	1.79	2.116	-0.3134
60	1.403	2.133	-0.3388
70	0.856	2.133	-0.3557
80	0.352	2.137	-0.363
90	0	2.146	-0.3604
100	-0.159	1.2989	-0.36
110	-0.302	1.2148	-0.3446
120	-0.415	1.0684	-0.3166
130	-0.486	0.8799	-0.28
140	-0.51	0.6743	-0.2394
150	-0.494	0.4784	-0.2001
160	-0.46	0.3172	-0.1685
170	-0.23	0.2116	-0.5
180	0	0.1748	0
--
Contents of "Airfoils/UAE_VI/Mod_S809_242.dat":
 NonDimAreA      = 1.0                 
 NumCoords       = 0                   
 NumTabs         = 1                   
 Re              = 0.75                
 Ctrl            = 0.0                 
 InclUAdata      = False               
 NumAlf          = 61                  
-180	0	0.1748	0
-170	0.23	0.2116	0.4
-160	0.46	0.3172	0.1018
-150	0.494	0.4784	0.1333
-140	0.51	0.6743	0.1727
-130	0.486	0.8799	0.2132
-120	0.415	1.0684	0.2498
-110	0.302	1.2148	0.2779
-100	0.159	1.2989	0.2933
-90	0	1.308	0.2936
-80	-0.159	1.2989	0.2933
-70	-0.302	1.2148	0.2779
-60	-0.415	1.0684	0.2498
-50	-0.486	0.8799	0.2132
-40	-0.51	0.6743	0.1727
-30	-0.494	0.4784	0.1333
-21.1	-0.56	0.3027	0.0612
-19.1	-0.67	0.3069	0.0904
-17.1	-0.79	0.1928	0.0293
-15.2	-0.84	0.0898	-0.009
-13.2	-0.7	0.0553	-0.0045
-11.1	-0.63	0.039	-0.0044
-9.2	-0.56	0.0233	-0.0051
-7.1	-0.64	0.0131	0.0018
-5.1	-0.425	0.0134	-0.0216
-3.1	-0.205	0.0119	-0.0282
-0.9	0.055	0.0122	-0.0346
1	0.296	0.0116	-0.0405
3.1	0.54	0.0144	-0.0455
5.2	0.789	0.0146	-0.0507
7.1	1.004	0.0162	-0.0404
9.2	1.21	0.0274	-0.0321
10.3	1.283	0.0303	-0.0281
11.1	1.318	0.0369	-0.0284
12.2	1.343	0.0509	-0.0322
13.2	1.352	0.0648	-0.0361
14.3	1.361	0.0776	-0.0363
15.3	1.367	0.112	-0.0393
16.1	1.365	0.149	-0.0398
17.1	1.353	0.249	-0.0983
18.1	1.303	0.4	-0.1242
19.1	1.322	0.4	-0.1155
23.6	1.787	0.4784	-0.2459
29.91	2.039	0.6743	-0.2813
35	1.955157303	0.885	-0.286349438
40	1.805438202	1.283	-0.295366292
45	1.655719101	1.655719101	-0.304383146
50	1.506	1.738	-0.3134
60	1.129	1.815	-0.3388
70	0.76	1.858	-0.3557
80	0.323	1.888	-0.363
90	0	1.906	-0.3604
100	-0.159	1.2989	-0.36
110	-0.302	1.2148	-0.3446
120	-0.415	1.0684	-0.3166
130	-0.486	0.8799	-0.28
140	-0.51	0.6743	-0.2394
150	-0.494	0.4784	-0.2001
160	-0.46	0.3172	-0.1685
170	-0.23	0.2116	-0.5
180	0	0.1748	0
--
Contents of "Airfoils/UAE_VI/Mod_S809_298.dat":
 NonDimAreA      = 1.0                 
 NumCoords       = 0                   
 NumTabs         = 1                   
 Re              = 0.75                
 Ctrl            = 0.0                 
 InclUAdata      = False               
 NumAlf          = 61                  
-180	0	0.1748	0
-170	0.23	0.2116	0.4
-160	0.46	0.3172	0.1018
-150	0.494	0.4784	0.1333
-140	0.51	0.6743	0.1727
-130	0.486	0.8799	0.2132
-120	0.415	1.0684	0.2498
-110	0.302	1.2148	0.2779
-100	0.159	1.2989	0.2933
-90	0	1.308	0.2936
-80	-0.159	1.2989	0.2933
-70	-0.302	1.2148	0.2779
-60	-0.415	1.0684	0.2498
-50	-0.486	0.8799	0.2132
-40	-0.51	0.6743	0.1727
-30	-0.494	0.4784	0.1333
-21.1	-0.56	0.3027	0.0612
-19.1	-0.67	0.3069	0.0904
-17.1	-0.79	0.1928	0.0293
-15.2	-0.84	0.0898	-0.009
-13.2	-0.7	0.0553	-0.0045
-11.1	-0.63	0.039	-0.0044
-9.2	-0.56	0.0233	-0.0051
-7.1	-0.64	0.0131	0.0018
-5.1	-0.424	0.0134	-0.0216
-3.1	-0.206	0.0119	-0.0282
-0.9	0.054	0.0122	-0.0346
1	0.297	0.0116	-0.0405
3.1	0.54	0.0144	-0.0455
5.2	0.789	0.0146	-0.0507
7.1	1	0.0162	-0.0404
9.2	1.21	0.0274	-0.0321
10.3	1.249	0.0303	-0.0281
11.1	1.262	0.0369	-0.0284
12.2	1.288	0.0509	-0.0322
13.2	1.309	0.0648	-0.0361
14.3	1.3	0.0776	-0.0363
15.3	1.293	0.0917	-0.0393
16.1	1.279	0.0994	-0.0398
17.1	1.251	0.2306	-0.0983
18.1	1.181	0.4	-0.1242
19.1	1.188	0.4	-0.1155
23.9	1.569	0.4784	-0.2459
30.04	1.82	0.6743	-0.2813
35	1.705109489	0.919310219	-0.285634672
40	1.602554745	1.250405109	-0.291492336
45	1.5	1.5815	-0.29735
50	1.343	1.652	-0.3134
60	1	1.712	-0.3388
70	0.694	1.742	-0.3557
80	0.304	1.76	-0.363
90	0	1.76	-0.3604
100	-0.159	1.2989	-0.36
110	-0.302	1.2148	-0.3446
120	-0.415	1.0684	-0.3166
130	-0.486	0.8799	-0.28
140	-0.51	0.6743	-0.2394
150	-0.494	0.4784	-0.2001
160	-0.46	0.3172	-0.1685
170	-0.23	0.2116	-0.5
180	0	0.1748	0
--
Contents of "Airfoils/UAE_VI/Mod_S809_354.dat":
 NonDimAreA      = 1.0                 
 NumCoords       = 0                   
 NumTabs         = 1                   
 Re              = 0.75                
 Ctrl            = 0.0                 
 InclUAdata      = False               
 NumAlf          = 61                  
-180	0	0.1748	0
-170	0.23	0.2116	0.4
-160	0.46	0.3172	0.1018
-150	0.494	0.4784	0.1333
-140	0.51	0.6743	0.1727
-130	0.486	0.8799	0.2132
-120	0.415	1.0684	0.2498
-110	0.302	1.2148	0.2779
-100	0.159	1.2989	0.2933
-90	0	1.308	0.2936
-80	-0.159	1.2989	0.2933
-70	-0.302	1.2148	0.2779
-60	-0.415	1.0684	0.2498
-50	-0.486	0.8799	0.2132
-40	-0.51	0.6743	0.1727
-30	-0.494	0.4784	0.1333
-21.1	-0.56	0.3027	0.0612
-19.1	-0.67	0.3069	0.0904
-17.1	-0.79	0.1928	0.0293
-15.2	-0.84	0.0898	-0.009
-13.2	-0.7	0.0553	-0.0045
-11.1	-0.63	0.039	-0.0044
-9.2	-0.56	0.0233	-0.0051
-7.1	-0.64	0.0131	0.0018
-5.1	-0.423	0.0134	-0.0216
-3.1	-0.207	0.0119	-0.0282
-0.9	0.053	0.0122	-0.0346
1	0.298	0.0116	-0.0405
3.1	0.54	0.0144	-0.0455
5.2	0.79	0.0146	-0.0507
7.1	1	0.0162	-0.0404
9.2	1.1	0.0274	-0.0321
10.3	1.137	0.0303	-0.0281
11.1	1.155	0.0369	-0.0284
12.2	1.215	0.0509	-0.0322
13.2	1.215	0.0648	-0.0361
14.3	1.22	0.0776	-0.0363
15.3	1.233	0.0917	-0.0393
16.1	1.209	0.0994	-0.0398
17.1	1.168	0.2306	-0.0983
18.1	1.082	0.4	-0.1242
19.1	1.079	0.4	-0.1155
24.5	1.39	0.4784	-0.2459
29.87	1.597	0.6743	-0.2813
35	1.480428571	0.882642857	-0.285885714
40	1.394714286	1.143071429	-0.291617857
45	1.309	1.4035	-0.29735
50	1.172	1.455	-0.3134
60	0.906	1.498	-0.3388
70	0.64	1.519	-0.3557
80	0.288	1.532	-0.363
90	0	1.536	-0.3604
100	-0.159	1.2989	-0.36
110	-0.302	1.2148	-0.3446
120	-0.415	1.0684	-0.3166
130	-0.486	0.8799	-0.28
140	-0.51	0.6743	-0.2394
150	-0.494	0.4784	-0.2001
160	-0.46	0.3172	-0.1685
170	-0.23	0.2116	-0.5
180	0	0.1748	0
--
Contents of "Airfoils/UAE_VI/Mod_S809_410.dat":
 NonDimAreA      = 1.0                 
 NumCoords       = 0                   
 NumTabs         = 1                   
 Re              = 0.75                
 Ctrl            = 0.0                 
 InclUAdata      = False               
 NumAlf          = 61                  
-180	0	0.1748	0
-170	0.23	0.2116	0.4
-160	0.46	0.3172	0.1018
-150	0.494	0.4784	0.1333
-140	0.51	0.6743	0.1727
-130	0.486	0.8799	0.2132
-120	0.415	1.0684	0.2498
-110	0.302	1.2148	0.2779
-100	0.159	1.2989	0.2933
-90	0	1.308	0.2936
-80	-0.159	1.2989	0.2933
-70	-0.302	1.2148	0.2779
-60	-0.415	1.0684	0.2498
-50	-0.486	0.8799	0.2132
-40	-0.51	0.6743	0.1727
-30	-0.494	0.4784	0.1333
-21.1	-0.56	0.3027	0.0612
-19.1	-0.67	0.3069	0.0904
-17.1	-0.79	0.1928	0.0293
-15.2	-0.84	0.0898	-0.009
-13.2	-0.7	0.0553	-0.0045
-11.1	-0.63	0.039	-0.0044
-9.2	-0.56	0.0233	-0.0051
-7.1	-0.64	0.0131	0.0018
-5.1	-0.423	0.0134	-0.0216
-3.1	-0.208	0.0119	-0.0282
-0.9	0.053	0.0122	-0.0346
1	0.298	0.0116	-0.0405
3.1	0.54	0.0144	-0.0455
5.2	0.79	0.0146	-0.0507
7.1	0.991	0.0162	-0.0404
9.2	1.064	0.0274	-0.0321
10.3	1.094	0.0303	-0.0281
11.1	1.112	0.0369	-0.0284
12.2	1.172	0.0509	-0.0322
13.2	1.176	0.0648	-0.0361
14.3	1.171	0.0776	-0.0363
15.3	1.176	0.0917	-0.0393
16.1	1.144	0.126	-0.0398
17.1	1.091	0.253	-0.0983
18.1	0.989	0.4	-0.1242
19.1	0.977	0.4	-0.1155
24.5	1.223	0.4784	-0.2459
29.96	1.386	0.6743	-0.2813
35	1.305	0.834237226	-0.285634672
40	1.233284672	1.050368613	-0.291492336
45	1.18	1.2665	-0.29735
50	1.052	1.322	-0.3134
60	0.82	1.352	-0.3388
70	0.589	1.378	-0.3557
80	0.273	1.395	-0.363
90	0	1.403	-0.3604
100	-0.159	1.2989	-0.36
110	-0.302	1.2148	-0.3446
120	-0.415	1.0684	-0.3166
130	-0.486	0.8799	-0.28
140	-0.51	0.6743	-0.2394
150	-0.494	0.4784	-0.2001
160	-0.46	0.3172	-0.1685
170	-0.23	0.2116	-0.5
180	0	0.1748	0
--
Contents of "Airfoils/UAE_VI/Mod_S809_600.dat":
 NonDimAreA      = 1.0                 
 NumCoords       = 0                   
 NumTabs         = 1                   
 Re              = 0.75                
 Ctrl            = 0.0                 
 InclUAdata      = False               
 NumAlf          = 63                  
-180	0	0.1748	0
-170	0.23	0.2116	0.4
-160	0.46	0.3172	0.1018
-150	0.494	0.4784	0.1333
-140	0.51	0.6743	0.1727
-130	0.486	0.8799	0.2132
-120	0.415	1.0684	0.2498
-110	0.302	1.2148	0.2779
-100	0.159	1.2989	0.2933
-90	0	1.308	0.2936
-80	-0.159	1.2989	0.2933
-70	-0.302	1.2148	0.2779
-60	-0.415	1.0684	0.2498
-50	-0.486	0.8799	0.2132
-40	-0.51	0.6743	0.1727
-30	-0.494	0.4784	0.1333
-21.1	-0.56	0.3027	0.0612
-19.1	-0.67	0.3069	0.0904
-17.1	-0.79	0.1928	0.0293
-15.2	-0.84	0.0898	-0.009
-13.2	-0.7	0.0553	-0.0045
-11.1	-0.63	0.039	-0.0044
-9.2	-0.56	0.0233	-0.0051
-7.1	-0.64	0.0131	0.0018
-5.1	-0.4215	0.0134	-0.0216
-3.1	-0.209	0.0119	-0.0282
-0.9	0.0515	0.0122	-0.0346
1	0.299	0.0116	-0.0405
3.1	0.54	0.0144	-0.0455
5.2	0.79	0.0146	-0.0507
6.15	0.8865	0.0154	-0.04555
7.1	0.983	0.0162	-0.0404
8.15	1	0.0218	-0.03625
9.2	1.017	0.0274	-0.0321
10.3	1.039	0.0303	-0.0281
11.1	1.064	0.0369	-0.0284
12.2	1.112	0.0509	-0.0322
13.34	1.116	0.0648	-0.0361
14.3	1.069	0.0776	-0.0363
15.3	1.034	0.0917	-0.0393
16.1	0.974	0.0994	-0.0398
17.1	0.9	0.186	-0.0983
18.1	0.85	0.298	-0.1242
19.1	0.841	0.35	-0.1155
25	1.155	0.458	-0.174786061
30	1.082	0.553577576	-0.225028485
35.6	1.034	0.6743	-0.2813
40	1.064	0.845478723	-0.288812766
45	1.039	1.04	-0.29735
50	0.94	1.12	-0.3134
60	0.725	1.227	-0.3388
70	0.5105	1.296	-0.3557
80	0.25	1.335	-0.363
90	0	1.339	-0.3604
100	-0.159	1.2989	-0.36
110	-0.302	1.2148	-0.3446
120	-0.415	1.0684	-0.3166
130	-0.486	0.8799	-0.28
140	-0.51	0.6743	-0.2394
150	-0.494	0.4784	-0.2001
160	-0.46	0.3172	-0.1685
170	-0.23	0.2116	-0.5
180	0	0.1748	0
--
Contents of "Airfoils/UAE_VI/Mod_S809_800.dat":
 NonDimAreA      = 1.0                 
 NumCoords       = 0                   
 NumTabs         = 1                   
 Re              = 0.75                
 Ctrl            = 0.0                 
 InclUAdata      = False               
 NumAlf          = 63                  
-180	0	0.1748	0
-170	0.23	0.2116	0.4
-160	0.46	0.3172	0.1018
-150	0.494	0.4784	0.1333
-140	0.51	0.6743	0.1727
-130	0.486	0.8799	0.2132
-120	0.415	1.0684	0.2498
-110	0.302	1.2148	0.2779
-100	0.159	1.2989	0.2933
-90	0	1.308	0.2936
-80	-0.159	1.2989	0.2933
-70	-0.302	1.2148	0.2779
-60	-0.415	1.0684	0.2498
-50	-0.486	0.8799	0.2132
-40	-0.51	0.6743	0.1727
-30	-0.494	0.4784	0.1333
-21.1	-0.56	0.3027	0.0612
-19.1	-0.67	0.3069	0.0904
-17.1	-0.79	0.1928	0.0293
-15.2	-0.84	0.0898	-0.009
-13.2	-0.7	0.0553	-0.0045
-11.1	-0.63	0.039	-0.0044
-9.2	-0.56	0.0233	-0.0051
-7.1	-0.64	0.0131	0.0018
-5.1	-0.42	0.0134	-0.0216
-3.1	-0.21	0.0119	-0.0282
-0.9	0.05	0.0122	-0.0346
1	0.3	0.0116	-0.0405
3.1	0.54	0.0144	-0.0455
5.2	0.79	0.0146	-0.0507
6.15	0.8585	0.0154	-0.04555
7.1	0.948	0.0162	-0.0404
8.15	0.979	0.0218	-0.03625
9.2	0.979	0.0274	-0.0321
10.3	0.974	0.0303	-0.0281
11.1	0.979	0.0369	-0.0284
12.2	0.991	0.0509	-0.0322
13.2	1.013	0.0648	-0.0361
14.32	1.026	0.0776	-0.0363
15.3	0.961	0.0917	-0.0393
16.1	0.931	0.0994	-0.0398
17.1	0.858	0.193	-0.0983
18.1	0.79	0.29	-0.1242
19.1	0.755	0.379	-0.1155
25	0.867	0.454	-0.1807
30	0.781	0.4784	-0.2459
35	0.742	0.57635	-0.2636
40	0.704	0.6743	-0.2813
45	0.652	0.7771	-0.29735
50	0.571	0.8799	-0.3134
60	0.53	1.0684	-0.3388
70	0.38	1.2148	-0.3557
80	0.18	1.2989	-0.363
90	0	1.308	-0.3604
100	-0.159	1.2989	-0.36
110	-0.302	1.2148	-0.3446
120	-0.415	1.0684	-0.3166
130	-0.486	0.8799	-0.28
140	-0.51	0.6743	-0.2394
150	-0.494	0.4784	-0.2001
160	-0.46	0.3172	-0.1685
170	-0.23	0.2116	-0.5
180	0	0.1748	0
--
Contents of "Airfoils/UAE_VI/Mod_S809_Outboard.dat":
 NonDimAreA      = 1.0                 
 NumCoords       = 0                   
 NumTabs         = 1                   
 Re              = 0.75                
 Ctrl            = 0.0                 
 InclUAdata      = False               
 NumAlf          = 63                  
-180	0	0.1748	0
-170	0.23	0.2116	0.4
-160	0.46	0.3172	0.1018
-150	0.494	0.4784	0.1333
-140	0.51	0.6743	0.1727
-130	0.486	0.8799	0.2132
-120	0.415	1.0684	0.2498
-110	0.302	1.2148	0.2779
-100	0.159	1.2989	0.2933
-90	0	1.308	0.2936
-80	-0.159	1.2989	0.2933
-70	-0.302	1.2148	0.2779
-60	-0.415	1.0684	0.2498
-50	-0.486	0.8799	0.2132
-40	-0.51	0.6743	0.1727
-30	-0.494	0.4784	0.1333
-21.1	-0.56	0.3027	0.0612
-19.1	-0.67	0.3069	0.0904
-17.1	-0.79	0.1928	0.0293
-15.2	-0.84	0.0898	-0.009
-13.2	-0.7	0.0553	-0.0045
-11.1	-0.63	0.039	-0.0044
-9.2	-0.56	0.0233	-0.0051
-7.1	-0.64	0.0131	0.0018
-5.1	-0.42	0.0134	-0.0216
-3.1	-0.21	0.0119	-0.0282
-0.9	0.05	0.0122	-0.0346
1	0.3	0.0116	-0.0405
3.1	0.54	0.0144	-0.0455
5.2	0.777	0.0146	-0.0507
6.15	0.854	0.0154	-0.04555
7.1	0.906	0.0162	-0.0404
8.15	0.888	0.0266	-0.03625
9.2	0.91	0.037	-0.0321
10.3	0.927	0.045	-0.0281
11.18	0.948	0.052	-0.0284
12.2	0.957	0.067	-0.0322
13.2	0.987	0.074	-0.0361
14.3	1.009	0.089	-0.0363
15.3	0.948	0.112	-0.0393
16.1	0.918	0.123	-0.0398
17.1	0.815	0.175	-0.0983
18.1	0.7	0.257	-0.1242
19.1	0.627	0.305	-0.1155
25	0.528	0.454	-0.186083486
30	0.631	0.4784	-0.2459
35	0.592	0.524	-0.2636
40	0.554	0.554	-0.2813
45	0.506	0.61	-0.29735
50	0.442	0.807	-0.3134
60	0.296	0.987	-0.3388
70	0.193	1.172	-0.3557
80	0.082	1.236	-0.363
90	0	1.249	-0.3604
100	-0.159	1.2989	-0.36
110	-0.302	1.2148	-0.3446
120	-0.415	1.0684	-0.3166
130	-0.486	0.8799	-0.28
140	-0.51	0.6743	-0.2394
150	-0.494	0.4784	-0.2001
160	-0.46	0.3172	-0.1685
170	-0.23	0.2116	-0.5
180	0	0.1748	0
