
This file was generated by AeroDyn (v14.02.01c-bjj, 30-June-2014) on 06-Nov-2014 at 13:58:54.

Inputs read in from the AeroDyn input file:
My UAE Phase VI (Ames) aerodynamic parameters for FAST certification test #10.

           SI  SysUnits       - Units for input and output         
       STEADY  StallMod       - Dynamic stall model                 [NO Dynamic stall]
        NO_CM  UseCm          - Aerodynamic pitching moment model   [NO Pitching Moments calculated]
        EQUIL  InfModel       - Inflow model                        [Equilibrium]
        SWIRL  IndModel       - Induction factor model              [Normal and Radial flow induction factors calculated]
   1.0000E-06  AToler         - Convergence tolerance for induction factor
        PRAND  TLModel        - Tip-loss model                      [Prandtl model]
        PRAND  HLModel        - Hub-loss model                      [Prandtl model]
               WindFile       - Wind file name
  Test06\../Wind/PwrCrv.wnd
   1.2192E+01  HH             - Wind reference (hub) height, m
   0.0000E+00  TwrShad        - Tower shadow centerline velocity deficit
   4.0000E-01  ShadHWid       - Tower shadow half width, m
   1.4010E+00  T_Shad_Refpt   - Tower shadow reference point, m
   1.2254E+00  AirDens        - Air density, kg/m^3
   1.8121E-05  KinVisc        - Kinematic air viscosity, m^2/sec
   5.2415E-03  DTAERO         - Time interval for aerodynamic calculations, sec
            8  NumFoil        - Number of airfoil files used. Files listed below:
"Test06\../af_files2/cylinder.dat"
"Test06\../af_files2/S809_CLN_129.dat"
"Test06\../af_files2/S809_CLN_185.dat"
"Test06\../af_files2/S809_CLN_242.dat"
"Test06\../af_files2/S809_CLN_298.dat"
"Test06\../af_files2/S809_CLN_354.dat"
"Test06\../af_files2/S809_CLN_410.dat"
"Test06\../af_files2/S809_CLN_Outboard.dat"
           21  BldNodes       - Number of blade elements per blade

     Element     RELM       Twist       DR        Chord      NFoil     Print?    Tip-loss   Hub-loss 
       (-)        (m)       (deg)       (m)        (m)        (-)     (Yes/No)   constant   constant 
   ---------- ---------- ---------- ---------- ---------- ---------- ---------- ---------- ----------
            1    0.60600    0.00000    0.19610    0.21900          1        Yes    7.29868    0.19291
            2    0.88010   -0.09800    0.35200    0.18100          3        Yes    4.71412    0.73248
            3    1.23210   19.42300    0.35200    0.71400          4        Yes    3.08165    1.42539
            4    1.50870   14.31800    0.20120    0.71100          5        Yes    2.33333    1.96988
            5    1.70990   10.97100    0.20120    0.69100          6        Yes    1.94111    2.36594
            6    1.92780    8.24400    0.23470    0.66800          7        Yes    1.60867    2.79488
            7    2.14570    6.16400    0.20120    0.64700          8        Yes    1.34376    3.22382
            8    2.34690    4.68900    0.20120    0.62700          8        Yes    1.14283    3.61988
            9    2.54800    3.49900    0.20120    0.60600          8        Yes    0.97370    4.01575
           10    2.76600    2.47800    0.23490    0.58400          8        Yes    0.81815    4.44488
           11    2.98400    1.68600    0.20100    0.56100          8        Yes    0.68532    4.87402
           12    3.18500    1.11500    0.20120    0.54200          8        Yes    0.57896    5.26968
           13    3.38620    0.66600    0.20120    0.52200          8        Yes    0.48515    5.66575
           14    3.60410    0.26700    0.23470    0.49900          8        Yes    0.39536    6.09468
           15    3.82200   -0.07900    0.20120    0.47800          8        Yes    0.31580    6.52362
           16    4.02320   -0.38100    0.20120    0.45700          8        Yes    0.25000    6.91968
           17    4.22440   -0.67900    0.20120    0.43700          8        Yes    0.19046    7.31575
           18    4.40040   -0.93300    0.15090    0.41900          8        Yes    0.14285    7.66221
           19    4.57640   -1.18400    0.20120    0.40100          8        Yes    0.09890    8.00866
           20    4.77760   -1.46600    0.20120    0.38100          8        Yes    0.05262    8.40472
           21    4.95360   -1.71100    0.15090    0.36300          8        Yes    0.01522    8.75118


 Rotor radius     =   5.029 m
 Hub radius       =   0.508 m
 Number of blades =   2

Blade element aerodynamic time series data written to file.

