
This summary information was generated by ElastoDyn (v1.01.06b-bjj, 30-June-2014) on 06-Nov-2014 at 13:58:41.


Turbine features:

            Upwind, two-bladed rotor with rigid hub.
            The model has 0 of 22 DOFs active (enabled) at start-up.
 Disabled   Platform horizontal surge translation DOF 
 Disabled   Platform horizontal sway translation DOF 
 Disabled   Platform vertical heave translation DOF 
 Disabled   Platform roll tilt rotation DOF 
 Disabled   Platform pitch tilt rotation DOF 
 Disabled   Platform yaw rotation DOF 
 Disabled   1st tower fore-aft bending mode DOF 
 Disabled   1st tower side-to-side bending mode DOF 
 Disabled   2nd tower fore-aft bending mode DOF 
 Disabled   2nd tower side-to-side bending mode DOF 
 Disabled   Nacelle yaw DOF 
 Disabled   Rotor-furl DOF 
 Disabled   Variable speed generator DOF 
 Disabled   Drivetrain rotational-flexibility DOF 
 Disabled   Tail-furl DOF 
 Disabled   1st flapwise bending-mode DOF of blade 1 
 Disabled   1st edgewise bending-mode DOF of blade 1 
 Disabled   2nd flapwise bending-mode DOF of blade 1 
 Disabled   1st flapwise bending-mode DOF of blade 2 
 Disabled   1st edgewise bending-mode DOF of blade 2 
 Disabled   2nd flapwise bending-mode DOF of blade 2 
 Disabled   Hub teetering DOF 


Time steps:

    Structural            (s)        0.00524146


Some calculated parameters:

    Hub-Height            (m)            12.192
    Flexible Tower Length (m)            11.500
    Flexible Blade Length (m)             4.521


Rotor mass properties:

    Rotor Mass            (kg)          574.979
    Rotor Inertia         (kg-m^2)      784.251
                                        Blade 1      Blade 2
                                        -------      -------
    Mass                  (kg)           59.040       59.040
    Second Mass Moment    (kg-m^2)      273.835      273.835
    First Mass Moment     (kg-m)        101.431      101.431
    Center of Mass        (m)             1.718        1.718


Additional mass properties:

    Tower-top Mass        (kg)         1830.079
    Tower Mass            (kg)         2576.975
    Platform Mass         (kg)            0.000
    Mass Incl. Platform   (kg)         4407.055


Interpolated tower properties:

Node  TwFract   HNodes  DHNodes  TMassDen    FAStiff    SSStiff
 (-)      (-)      (m)      (m)    (kg/m)     (Nm^2)     (Nm^2)
   1    0.024    0.274    0.548   260.467  2.359E+08  2.359E+08
   2    0.071    0.821    0.548   260.467  2.359E+08  2.359E+08
   3    0.119    1.369    0.548   260.467  2.359E+08  2.359E+08
   4    0.167    1.917    0.548   260.467  2.359E+08  2.359E+08
   5    0.214    2.464    0.548   260.467  2.359E+08  2.359E+08
   6    0.262    3.012    0.548   260.467  2.359E+08  2.359E+08
   7    0.310    3.560    0.548   243.481  1.861E+08  1.861E+08
   8    0.357    4.107    0.548   207.107  7.947E+07  7.947E+07
   9    0.405    4.655    0.548   207.107  7.947E+07  7.947E+07
  10    0.452    5.202    0.548   207.107  7.947E+07  7.947E+07
  11    0.500    5.750    0.548   207.107  7.947E+07  7.947E+07
  12    0.548    6.298    0.548   207.107  7.947E+07  7.947E+07
  13    0.595    6.845    0.548   207.107  7.947E+07  7.947E+07
  14    0.643    7.393    0.548   207.107  7.947E+07  7.947E+07
  15    0.690    7.940    0.548   207.107  7.947E+07  7.947E+07
  16    0.738    8.488    0.548   207.107  7.947E+07  7.947E+07
  17    0.786    9.036    0.548   207.107  7.947E+07  7.947E+07
  18    0.833    9.583    0.548   207.107  7.947E+07  7.947E+07
  19    0.881   10.131    0.548   207.107  7.947E+07  7.947E+07
  20    0.929   10.679    0.548   207.107  7.947E+07  7.947E+07
  21    0.976   11.226    0.548   207.107  7.947E+07  7.947E+07


Interpolated blade 1 properties:

Node  BlFract   RNodes  DRNodes PitchAxis  StrcTwst  BMassDen    FlpStff    EdgStff
 (-)      (-)      (m)      (m)       (-)     (deg)    (kg/m)     (Nm^2)     (Nm^2)
   1    0.022    0.606    0.196     0.250     0.000    44.336  2.256E+06  8.709E+05
   2    0.082    0.880    0.352     0.250     0.000    17.763  1.148E+06  4.433E+05
   3    0.160    1.232    0.352     0.250    15.380    14.802  6.105E+05  9.835E+05
   4    0.221    1.509    0.201     0.250    15.688    15.812  5.237E+05  1.166E+06
   5    0.266    1.710    0.201     0.250    11.858    15.204  4.592E+05  1.110E+06
   6    0.314    1.928    0.235     0.250     8.989    14.861  4.109E+05  1.086E+06
   7    0.362    2.146    0.201     0.250     6.715    14.570  3.713E+05  1.057E+06
   8    0.407    2.347    0.201     0.250     5.004    13.354  3.274E+05  9.311E+05
   9    0.451    2.548    0.201     0.250     3.748    11.874  2.735E+05  7.537E+05
  10    0.499    2.766    0.235     0.250     2.695    11.242  2.313E+05  6.557E+05
  11    0.548    2.984    0.201     0.250     1.833    10.699  1.977E+05  5.693E+05
  12    0.592    3.185    0.201     0.250     1.205    10.313  1.768E+05  5.022E+05
  13    0.637    3.386    0.201     0.250     0.744     9.854  1.520E+05  4.405E+05
  14    0.685    3.604    0.235     0.250     0.321     9.364  1.272E+05  3.785E+05
  15    0.733    3.822    0.201     0.250    -0.043     8.895  1.054E+05  3.227E+05
  16    0.778    4.023    0.201     0.250    -0.357     8.451  8.741E+04  2.743E+05
  17    0.822    4.224    0.201     0.250    -0.657     8.037  7.264E+04  2.352E+05
  18    0.861    4.400    0.151     0.250    -0.920     7.672  6.021E+04  2.009E+05
  19    0.900    4.576    0.201     0.250    -1.171     7.307  5.014E+04  1.723E+05
  20    0.944    4.778    0.201     0.250    -1.459     6.896  3.927E+04  1.413E+05
  21    0.983    4.954    0.151     0.250    -1.707     6.538  3.139E+04  1.178E+05


Interpolated blade 2 properties:

Node  BlFract   RNodes  DRNodes PitchAxis  StrcTwst  BMassDen    FlpStff    EdgStff
 (-)      (-)      (m)      (m)       (-)     (deg)    (kg/m)     (Nm^2)     (Nm^2)
   1    0.022    0.606    0.196     0.250     0.000    44.336  2.256E+06  8.709E+05
   2    0.082    0.880    0.352     0.250     0.000    17.763  1.148E+06  4.433E+05
   3    0.160    1.232    0.352     0.250    15.380    14.802  6.105E+05  9.835E+05
   4    0.221    1.509    0.201     0.250    15.688    15.812  5.237E+05  1.166E+06
   5    0.266    1.710    0.201     0.250    11.858    15.204  4.592E+05  1.110E+06
   6    0.314    1.928    0.235     0.250     8.989    14.861  4.109E+05  1.086E+06
   7    0.362    2.146    0.201     0.250     6.715    14.570  3.713E+05  1.057E+06
   8    0.407    2.347    0.201     0.250     5.004    13.354  3.274E+05  9.311E+05
   9    0.451    2.548    0.201     0.250     3.748    11.874  2.735E+05  7.537E+05
  10    0.499    2.766    0.235     0.250     2.695    11.242  2.313E+05  6.557E+05
  11    0.548    2.984    0.201     0.250     1.833    10.699  1.977E+05  5.693E+05
  12    0.592    3.185    0.201     0.250     1.205    10.313  1.768E+05  5.022E+05
  13    0.637    3.386    0.201     0.250     0.744     9.854  1.520E+05  4.405E+05
  14    0.685    3.604    0.235     0.250     0.321     9.364  1.272E+05  3.785E+05
  15    0.733    3.822    0.201     0.250    -0.043     8.895  1.054E+05  3.227E+05
  16    0.778    4.023    0.201     0.250    -0.357     8.451  8.741E+04  2.743E+05
  17    0.822    4.224    0.201     0.250    -0.657     8.037  7.264E+04  2.352E+05
  18    0.861    4.400    0.151     0.250    -0.920     7.672  6.021E+04  2.009E+05
  19    0.900    4.576    0.201     0.250    -1.171     7.307  5.014E+04  1.723E+05
  20    0.944    4.778    0.201     0.250    -1.459     6.896  3.927E+04  1.413E+05
  21    0.983    4.954    0.151     0.250    -1.707     6.538  3.139E+04  1.178E+05


Requested Outputs:


  Col  Parameter  Units
  ---  ---------  -----
   0   Time       (s)       
   1   RootFxc1   (kN)      
   2   RootFyc1   (kN)      
   3   RootFzc1   (kN)      
   4   RootFxc2   (kN)      
   5   RootFyc2   (kN)      
   6   RootFzc2   (kN)      
   7   RootMOoP1  (kN·m)    
   8   RootMIP1   (kN·m)    
   9   RootMzc1   (kN·m)    
  10   RotTorq    (kN·m)    
  11   RotThrust  (kN)      
  12   RotPwr     (kW)      
  13   LSSGagMya  (kN·m)    
  14   LSSGagMza  (kN·m)    
  15   YawBrMxp   (kN·m)    
  16   YawBrMyp   (kN·m)    
