
This file of echoed input was generated by AeroDyn (v14.00.00a-gjh, 01-Oct-2014) on 11-Nov-2014 at 14:42:33.
--
Contents of "af_files2/cylinder.dat":
 NonDimAreA      = 1.0                 
 NumCoords       = 0                   
 NumTabs         = 1                   
 Re              = 0.75                
 Ctrl            = 0.0                 
 InclUAdata      = False               
 NumAlf          = 3                   
-180.00	   .000	  .3000  0.0
.00	   .000	  .3000  0.0
180.00	   .000	  .3000  0.0
--
Contents of "af_files2/S809_CLN_129.dat":
 NonDimAreA      = 1.0                 
 NumCoords       = 0                   
 NumTabs         = 1                   
 Re              = 0.75                
 Ctrl            = 0.0                 
 InclUAdata      = False               
 NumAlf          = 58                  
-180.00	   .000	  .1748	  .0000
-170.00	   .230	  .2116	  .4000
-160.00	   .460	  .3172	  .1018
-150.00	   .494	  .4784	  .1333
-140.00	   .510	  .6743	  .1727
-130.00	   .486	  .8799	  .2132
-120.00	   .415	 1.0684	  .2498
-110.00	   .302	 1.2148	  .2779
-100.00	   .159	 1.2989	  .2933
-90.00	   .000	 1.3080	  .2936
-80.00	  -.159	 1.2989	  .2933
-70.00	  -.302	 1.2148	  .2779
-60.00	  -.415	 1.0684	  .2498
-50.00	  -.486	  .8799	  .2132
-40.00	  -.510	  .6743	  .1727
-30.00	  -.494	  .4784	  .1333
-20.10	  -.560	  .3027	  .0612
-18.10	  -.670	  .3069	  .0904
-16.10	  -.790	  .1928	  .0293
-14.20	  -.840	  .0898	 -.0090
-12.20	  -.700	  .0553	 -.0045
-10.10	  -.630	  .0390	 -.0044
-8.20	  -.560	  .0233	 -.0051
-6.10	  -.640	  .0131	  .0018
-4.1	-0.429	0.0134	 -.0216
-2.1	-0.202	0.0119	 -.0282
0.1	0.059	0.0122	 -.0346
2	0.294	0.0116	 -.0405
4.1	0.539	0.0144	 -.0455
6.2	0.789	0.0146	 -.0507
8.1	0.970	0.0162	 -.0404
10.2	1.134	0.0274	 -.0321
11.3	1.210	0.0303	 -.0281
12.1	1.279	0.0369	 -.0284
13.2	1.375	0.0509	 -.0322
14.2	1.455	0.0648	 -.0361
15.3	1.539	0.0776	 -.0363
16.3	1.604	0.0917	 -.0393
17.1	1.639	0.0994	 -.0398
18.1	1.676	0.2306	 -.0983
19.1	1.691	0.3142	 -.1242
20.1	1.748	0.3186	 -.1155
30	2.484	0.4784	 -.2459
40	2.459	0.6743	 -.2813
50	2.133	0.8799	 -.3134
60	1.599	1.0684	 -.3388
70	0.971	1.2148	 -.3557
80	0.385	1.2989	 -.3630
90	0.000	1.3080	 -.3604
100.00	  -.159	 1.2989	 -.3600
110.00	  -.302	 1.2148	 -.3446
120.00	  -.415	 1.0684	 -.3166
130.00	  -.486	  .8799	 -.2800
140.00	  -.510	  .6743	 -.2394
150.00	  -.494	  .4784	 -.2001
160.00	  -.460	  .3172	 -.1685
170.00	  -.230	  .2116	 -.5000
180.00	   .000	  .1748	  .0000
--
Contents of "af_files2/S809_CLN_185.dat":
 NonDimAreA      = 1.0                 
 NumCoords       = 0                   
 NumTabs         = 1                   
 Re              = 0.75                
 Ctrl            = 0.0                 
 InclUAdata      = False               
 NumAlf          = 58                  
-180.00	   .000	  .1748	  .0000
-170.00	   .230	  .2116	  .4000
-160.00	   .460	  .3172	  .1018
-150.00	   .494	  .4784	  .1333
-140.00	   .510	  .6743	  .1727
-130.00	   .486	  .8799	  .2132
-120.00	   .415	 1.0684	  .2498
-110.00	   .302	 1.2148	  .2779
-100.00	   .159	 1.2989	  .2933
-90.00	   .000	 1.3080	  .2936
-80.00	  -.159	 1.2989	  .2933
-70.00	  -.302	 1.2148	  .2779
-60.00	  -.415	 1.0684	  .2498
-50.00	  -.486	  .8799	  .2132
-40.00	  -.510	  .6743	  .1727
-30.00	  -.494	  .4784	  .1333
-20.10	  -.560	  .3027	  .0612
-18.10	  -.670	  .3069	  .0904
-16.10	  -.790	  .1928	  .0293
-14.20	  -.840	  .0898	 -.0090
-12.20	  -.700	  .0553	 -.0045
-10.10	  -.630	  .0390	 -.0044
-8.20	  -.560	  .0233	 -.0051
-6.10	  -.640	  .0131	  .0018
-4.1	-0.427	0.0134	 -.0216
-2.1	-0.204	0.0119	 -.0282
0.1	0.057	0.0122	 -.0346
2	0.295	0.0116	 -.0405
4.1	0.540	0.0144	 -.0455
6.2	0.789	0.0146	 -.0507
8.1	0.955	0.0162	 -.0404
10.2	1.090	0.0274	 -.0321
11.3	1.148	0.0303	 -.0281
12.1	1.209	0.0369	 -.0284
13.2	1.293	0.0509	 -.0322
14.2	1.360	0.0648	 -.0361
15.3	1.428	0.0776	 -.0363
16.3	1.475	0.0917	 -.0393
17.1	1.489	0.0994	 -.0398
18.1	1.500	0.2306	 -.0983
19.1	1.479	0.3142	 -.1242
20.1	1.515	0.3186	 -.1155
30	2.103	0.4784	 -.2459
40	2.089	0.6743	 -.2813
50	1.825	0.8799	 -.3134
60	1.384	1.0684	 -.3388
70	0.856	1.2148	 -.3557
80	0.352	1.2989	 -.3630
90	0.000	1.3080	 -.3604
100.00	  -.159	 1.2989	 -.3600
110.00	  -.302	 1.2148	 -.3446
120.00	  -.415	 1.0684	 -.3166
130.00	  -.486	  .8799	 -.2800
140.00	  -.510	  .6743	 -.2394
150.00	  -.494	  .4784	 -.2001
160.00	  -.460	  .3172	 -.1685
170.00	  -.230	  .2116	 -.5000
180.00	   .000	  .1748	  .0000
--
Contents of "af_files2/S809_CLN_242.dat":
 NonDimAreA      = 1.0                 
 NumCoords       = 0                   
 NumTabs         = 1                   
 Re              = 0.75                
 Ctrl            = 0.0                 
 InclUAdata      = False               
 NumAlf          = 58                  
-180.00	   .000	  .1748	  .0000
-170.00	   .230	  .2116	  .4000
-160.00	   .460	  .3172	  .1018
-150.00	   .494	  .4784	  .1333
-140.00	   .510	  .6743	  .1727
-130.00	   .486	  .8799	  .2132
-120.00	   .415	 1.0684	  .2498
-110.00	   .302	 1.2148	  .2779
-100.00	   .159	 1.2989	  .2933
-90.00	   .000	 1.3080	  .2936
-80.00	  -.159	 1.2989	  .2933
-70.00	  -.302	 1.2148	  .2779
-60.00	  -.415	 1.0684	  .2498
-50.00	  -.486	  .8799	  .2132
-40.00	  -.510	  .6743	  .1727
-30.00	  -.494	  .4784	  .1333
-20.10	  -.560	  .3027	  .0612
-18.10	  -.670	  .3069	  .0904
-16.10	  -.790	  .1928	  .0293
-14.20	  -.840	  .0898	 -.0090
-12.20	  -.700	  .0553	 -.0045
-10.10	  -.630	  .0390	 -.0044
-8.20	  -.560	  .0233	 -.0051
-6.10	  -.640	  .0131	  .0018
-4.1	-0.425	0.0134	 -.0216
-2.1	-0.205	0.0119	 -.0282
0.1	0.055	0.0122	 -.0346
2	0.296	0.0116	 -.0405
4.1	0.540	0.0144	 -.0455
6.2	0.789	0.0146	 -.0507
8.1	0.942	0.0162	 -.0404
10.2	1.054	0.0274	 -.0321
11.3	1.096	0.0303	 -.0281
12.1	1.150	0.0369	 -.0284
13.2	1.224	0.0509	 -.0322
14.2	1.281	0.0648	 -.0361
15.3	1.336	0.0776	 -.0363
16.3	1.367	0.0917	 -.0393
17.1	1.365	0.0994	 -.0398
18.1	1.353	0.2306	 -.0983
19.1	1.303	0.3142	 -.1242
20.1	1.322	0.3186	 -.1155
30	1.787	0.4784	 -.2459
40	1.781	0.6743	 -.2813
50	1.569	0.8799	 -.3134
60	1.205	1.0684	 -.3388
70	0.760	1.2148	 -.3557
80	0.323	1.2989	 -.3630
90	0.000	1.3080	 -.3604
100.00	  -.159	 1.2989	 -.3600
110.00	  -.302	 1.2148	 -.3446
120.00	  -.415	 1.0684	 -.3166
130.00	  -.486	  .8799	 -.2800
140.00	  -.510	  .6743	 -.2394
150.00	  -.494	  .4784	 -.2001
160.00	  -.460	  .3172	 -.1685
170.00	  -.230	  .2116	 -.5000
180.00	   .000	  .1748	  .0000
--
Contents of "af_files2/S809_CLN_298.dat":
 NonDimAreA      = 1.0                 
 NumCoords       = 0                   
 NumTabs         = 1                   
 Re              = 0.75                
 Ctrl            = 0.0                 
 InclUAdata      = False               
 NumAlf          = 58                  
-180.00	   .000	  .1748	  .0000
-170.00	   .230	  .2116	  .4000
-160.00	   .460	  .3172	  .1018
-150.00	   .494	  .4784	  .1333
-140.00	   .510	  .6743	  .1727
-130.00	   .486	  .8799	  .2132
-120.00	   .415	 1.0684	  .2498
-110.00	   .302	 1.2148	  .2779
-100.00	   .159	 1.2989	  .2933
-90.00	   .000	 1.3080	  .2936
-80.00	  -.159	 1.2989	  .2933
-70.00	  -.302	 1.2148	  .2779
-60.00	  -.415	 1.0684	  .2498
-50.00	  -.486	  .8799	  .2132
-40.00	  -.510	  .6743	  .1727
-30.00	  -.494	  .4784	  .1333
-20.10	  -.560	  .3027	  .0612
-18.10	  -.670	  .3069	  .0904
-16.10	  -.790	  .1928	  .0293
-14.20	  -.840	  .0898	 -.0090
-12.20	  -.700	  .0553	 -.0045
-10.10	  -.630	  .0390	 -.0044
-8.20	  -.560	  .0233	 -.0051
-6.10	  -.640	  .0131	  .0018
-4.1	-0.424	0.0134	 -.0216
-2.1	-0.206	0.0119	 -.0282
0.1	0.054	0.0122	 -.0346
2	0.297	0.0116	 -.0405
4.1	0.540	0.0144	 -.0455
6.2	0.789	0.0146	 -.0507
8.1	0.934	0.0162	 -.0404
10.2	1.029	0.0274	 -.0321
11.3	1.061	0.0303	 -.0281
12.1	1.110	0.0369	 -.0284
13.2	1.177	0.0509	 -.0322
14.2	1.226	0.0648	 -.0361
15.3	1.272	0.0776	 -.0363
16.3	1.293	0.0917	 -.0393
17.1	1.279	0.0994	 -.0398
18.1	1.251	0.2306	 -.0983
19.1	1.181	0.3142	 -.1242
20.1	1.188	0.3186	 -.1155
30	1.569	0.4784	 -.2459
40	1.569	0.6743	 -.2813
50	1.393	0.8799	 -.3134
60	1.082	1.0684	 -.3388
70	0.694	1.2148	 -.3557
80	0.304	1.2989	 -.3630
90	0.000	1.3080	 -.3604
100.00	  -.159	 1.2989	 -.3600
110.00	  -.302	 1.2148	 -.3446
120.00	  -.415	 1.0684	 -.3166
130.00	  -.486	  .8799	 -.2800
140.00	  -.510	  .6743	 -.2394
150.00	  -.494	  .4784	 -.2001
160.00	  -.460	  .3172	 -.1685
170.00	  -.230	  .2116	 -.5000
180.00	   .000	  .1748	  .0000
--
Contents of "af_files2/S809_CLN_354.dat":
 NonDimAreA      = 1.0                 
 NumCoords       = 0                   
 NumTabs         = 1                   
 Re              = 0.75                
 Ctrl            = 0.0                 
 InclUAdata      = False               
 NumAlf          = 58                  
-180.00	   .000	  .1748	  .0000
-170.00	   .230	  .2116	  .4000
-160.00	   .460	  .3172	  .1018
-150.00	   .494	  .4784	  .1333
-140.00	   .510	  .6743	  .1727
-130.00	   .486	  .8799	  .2132
-120.00	   .415	 1.0684	  .2498
-110.00	   .302	 1.2148	  .2779
-100.00	   .159	 1.2989	  .2933
-90.00	   .000	 1.3080	  .2936
-80.00	  -.159	 1.2989	  .2933
-70.00	  -.302	 1.2148	  .2779
-60.00	  -.415	 1.0684	  .2498
-50.00	  -.486	  .8799	  .2132
-40.00	  -.510	  .6743	  .1727
-30.00	  -.494	  .4784	  .1333
-20.10	  -.560	  .3027	  .0612
-18.10	  -.670	  .3069	  .0904
-16.10	  -.790	  .1928	  .0293
-14.20	  -.840	  .0898	 -.0090
-12.20	  -.700	  .0553	 -.0045
-10.10	  -.630	  .0390	 -.0044
-8.20	  -.560	  .0233	 -.0051
-6.10	  -.640	  .0131	  .0018
-4.1	-0.423	0.0134	 -.0216
-2.1	-0.207	0.0119	 -.0282
0.1	0.053	0.0122	 -.0346
2	0.298	0.0116	 -.0405
4.1	0.540	0.0144	 -.0455
6.2	0.790	0.0146	 -.0507
8.1	0.927	0.0162	 -.0404
10.2	1.008	0.0274	 -.0321
11.3	1.032	0.0303	 -.0281
12.1	1.077	0.0369	 -.0284
13.2	1.138	0.0509	 -.0322
14.2	1.182	0.0648	 -.0361
15.3	1.220	0.0776	 -.0363
16.3	1.233	0.0917	 -.0393
17.1	1.209	0.0994	 -.0398
18.1	1.168	0.2306	 -.0983
19.1	1.082	0.3142	 -.1242
20.1	1.079	0.3186	 -.1155
30	1.390	0.4784	 -.2459
40	1.395	0.6743	 -.2813
50	1.248	0.8799	 -.3134
60	0.981	1.0684	 -.3388
70	0.640	1.2148	 -.3557
80	0.288	1.2989	 -.3630
90	0.000	1.3080	 -.3604
100.00	  -.159	 1.2989	 -.3600
110.00	  -.302	 1.2148	 -.3446
120.00	  -.415	 1.0684	 -.3166
130.00	  -.486	  .8799	 -.2800
140.00	  -.510	  .6743	 -.2394
150.00	  -.494	  .4784	 -.2001
160.00	  -.460	  .3172	 -.1685
170.00	  -.230	  .2116	 -.5000
180.00	   .000	  .1748	  .0000
--
Contents of "af_files2/S809_CLN_410.dat":
 NonDimAreA      = 1.0                 
 NumCoords       = 0                   
 NumTabs         = 1                   
 Re              = 0.75                
 Ctrl            = 0.0                 
 InclUAdata      = False               
 NumAlf          = 58                  
-180.00	   .000	  .1748	  .0000
-170.00	   .230	  .2116	  .4000
-160.00	   .460	  .3172	  .1018
-150.00	   .494	  .4784	  .1333
-140.00	   .510	  .6743	  .1727
-130.00	   .486	  .8799	  .2132
-120.00	   .415	 1.0684	  .2498
-110.00	   .302	 1.2148	  .2779
-100.00	   .159	 1.2989	  .2933
-90.00	   .000	 1.3080	  .2936
-80.00	  -.159	 1.2989	  .2933
-70.00	  -.302	 1.2148	  .2779
-60.00	  -.415	 1.0684	  .2498
-50.00	  -.486	  .8799	  .2132
-40.00	  -.510	  .6743	  .1727
-30.00	  -.494	  .4784	  .1333
-20.10	  -.560	  .3027	  .0612
-18.10	  -.670	  .3069	  .0904
-16.10	  -.790	  .1928	  .0293
-14.20	  -.840	  .0898	 -.0090
-12.20	  -.700	  .0553	 -.0045
-10.10	  -.630	  .0390	 -.0044
-8.20	  -.560	  .0233	 -.0051
-6.10	  -.640	  .0131	  .0018
-4.1	-0.423	0.0134	 -.0216
-2.1	-0.208	0.0119	 -.0282
0.1	0.053	0.0122	 -.0346
2	0.298	0.0116	 -.0405
4.1	0.540	0.0144	 -.0455
6.2	0.790	0.0146	 -.0507
8.1	0.920	0.0162	 -.0404
10.2	0.989	0.0274	 -.0321
11.3	1.004	0.0303	 -.0281
12.1	1.046	0.0369	 -.0284
13.2	1.102	0.0509	 -.0322
14.2	1.140	0.0648	 -.0361
15.3	1.171	0.0776	 -.0363
16.3	1.176	0.0917	 -.0393
17.1	1.144	0.0994	 -.0398
18.1	1.091	0.2306	 -.0983
19.1	0.989	0.3142	 -.1242
20.1	0.977	0.3186	 -.1155
30	1.223	0.4784	 -.2459
40	1.233	0.6743	 -.2813
50	1.113	0.8799	 -.3134
60	0.886	1.0684	 -.3388
70	0.589	1.2148	 -.3557
80	0.273	1.2989	 -.3630
90	0.000	1.3080	 -.3604
100.00	  -.159	 1.2989	 -.3600
110.00	  -.302	 1.2148	 -.3446
120.00	  -.415	 1.0684	 -.3166
130.00	  -.486	  .8799	 -.2800
140.00	  -.510	  .6743	 -.2394
150.00	  -.494	  .4784	 -.2001
160.00	  -.460	  .3172	 -.1685
170.00	  -.230	  .2116	 -.5000
180.00	   .000	  .1748	  .0000
--
Contents of "af_files2/S809_CLN_Outboard.dat":
 NonDimAreA      = 1.0                 
 NumCoords       = 0                   
 NumTabs         = 1                   
 Re              = 0.75                
 Ctrl            = 0.0                 
 InclUAdata      = False               
 NumAlf          = 58                  
-180.00	   .000	  .1748	  .0000
-170.00	   .230	  .2116	  .4000
-160.00	   .460	  .3172	  .1018
-150.00	   .494	  .4784	  .1333
-140.00	   .510	  .6743	  .1727
-130.00	   .486	  .8799	  .2132
-120.00	   .415	 1.0684	  .2498
-110.00	   .302	 1.2148	  .2779
-100.00	   .159	 1.2989	  .2933
-90.00	   .000	 1.3080	  .2936
-80.00	  -.159	 1.2989	  .2933
-70.00	  -.302	 1.2148	  .2779
-60.00	  -.415	 1.0684	  .2498
-50.00	  -.486	  .8799	  .2132
-40.00	  -.510	  .6743	  .1727
-30.00	  -.494	  .4784	  .1333
-20.10	  -.560	  .3027	  .0612
-18.10	  -.670	  .3069	  .0904
-16.10	  -.790	  .1928	  .0293
-14.20	  -.840	  .0898	 -.0090
-12.20	  -.700	  .0553	 -.0045
-10.10	  -.630	  .0390	 -.0044
-8.20	  -.560	  .0233	 -.0051
-6.10	  -.640	  .0131	  .0018
-4.10	  -.420	  .0134	 -.0216
-2.10	  -.210	  .0119	 -.0282
.10	   .050	  .0122	 -.0346
2.00	   .300	  .0116	 -.0405
4.10	   .540	  .0144	 -.0455
6.20	   .790	  .0146	 -.0507
8.10	   .900	  .0162	 -.0404
10.20	   .930	  .0274	 -.0321
11.30	   .920	  .0303	 -.0281
12.10	   .950	  .0369	 -.0284
13.20	   .990	  .0509	 -.0322
14.20	  1.010	  .0648	 -.0361
15.30	  1.020	  .0776	 -.0363
16.30	  1.000	  .0917	 -.0393
17.10	   .940	  .0994	 -.0398
18.10	   .850	  .2306	 -.0983
19.10	   .700	  .3142	 -.1242
20.10	   .660	  .3186	 -.1155
30.00	   .705	  .4784	 -.2459
40.00	   .729	  .6743	 -.2813
50.00	   .694	  .8799	 -.3134
60.00	   .593	 1.0684	 -.3388
70.00	   .432	 1.2148	 -.3557
80.00	   .227	 1.2989	 -.3630
90.00	   .000	 1.3080	 -.3604
100.00	  -.159	 1.2989	 -.3600
110.00	  -.302	 1.2148	 -.3446
120.00	  -.415	 1.0684	 -.3166
130.00	  -.486	  .8799	 -.2800
140.00	  -.510	  .6743	 -.2394
150.00	  -.494	  .4784	 -.2001
160.00	  -.460	  .3172	 -.1685
170.00	  -.230	  .2116	 -.5000
180.00	   .000	  .1748	  .0000
